Input Parameters:
   integrator                     = md
   tinit                          = 0
   dt                             = 0.01
   nsteps                         = 700000000
   init-step                      = 0
   simulation-part                = 1
   comm-mode                      = Linear
   nstcomm                        = 100
   bd-fric                        = 0
   ld-seed                        = 1129467192
   emtol                          = 10
   emstep                         = 0.01
   niter                          = 20
   fcstep                         = 0
   nstcgsteep                     = 1000
   nbfgscorr                      = 10
   rtpi                           = 0.05
   nstxout                        = 50000000
   nstvout                        = 50000000
   nstfout                        = 50000000
   nstlog                         = 500000
   nstcalcenergy                  = 100
   nstenergy                      = 1000
   nstxout-compressed             = 100000
   compressed-x-precision         = 100000
   cutoff-scheme                  = Verlet
   nstlist                        = 10
   pbc                            = xyz
   periodic-molecules             = false
   verlet-buffer-tolerance        = 0.005
   rlist                          = 1.204
   coulombtype                    = PME
   coulomb-modifier               = Potential-shift
   rcoulomb-switch                = 0
   rcoulomb                       = 1.2
   epsilon-r                      = 15
   epsilon-rf                     = inf
   vdw-type                       = Cut-off
   vdw-modifier                   = Potential-shift
   rvdw-switch                    = 0.9
   rvdw                           = 1.2
   DispCorr                       = No
   table-extension                = 1
   fourierspacing                 = 0.16
   fourier-nx                     = 80
   fourier-ny                     = 80
   fourier-nz                     = 80
   pme-order                      = 4
   ewald-rtol                     = 1e-05
   ewald-rtol-lj                  = 0.001
   lj-pme-comb-rule               = Geometric
   ewald-geometry                 = 0
   epsilon-surface                = 0
   tcoupl                         = V-rescale
   nsttcouple                     = 10
   nh-chain-length                = 0
   print-nose-hoover-chain-variables = false
   pcoupl                         = Parrinello-Rahman
   pcoupltype                     = Isotropic
   nstpcouple                     = 10
   tau-p                          = 8
   compressibility (3x3):
      compressibility[    0]={ 3.00000e-04,  0.00000e+00,  0.00000e+00}
      compressibility[    1]={ 0.00000e+00,  3.00000e-04,  0.00000e+00}
      compressibility[    2]={ 0.00000e+00,  0.00000e+00,  3.00000e-04}
   ref-p (3x3):
      ref-p[    0]={ 1.00000e+00,  0.00000e+00,  0.00000e+00}
      ref-p[    1]={ 0.00000e+00,  1.00000e+00,  0.00000e+00}
      ref-p[    2]={ 0.00000e+00,  0.00000e+00,  1.00000e+00}
   refcoord-scaling               = COM
   posres-com (3):
      posres-com[0]= 0.00000e+00
      posres-com[1]= 0.00000e+00
      posres-com[2]= 0.00000e+00
   posres-comB (3):
      posres-comB[0]= 0.00000e+00
      posres-comB[1]= 0.00000e+00
      posres-comB[2]= 0.00000e+00
   QMMM                           = false
   QMconstraints                  = 0
   QMMMscheme                     = 0
   MMChargeScaleFactor            = 1
qm-opts:
   ngQM                           = 0
   constraint-algorithm           = Lincs
   continuation                   = false
   Shake-SOR                      = false
   shake-tol                      = 0.0001
   lincs-order                    = 4
   lincs-iter                     = 1
   lincs-warnangle                = 90
   nwall                          = 0
   wall-type                      = 9-3
   wall-r-linpot                  = -1
   wall-atomtype[0]               = -1
   wall-atomtype[1]               = -1
   wall-density[0]                = 0
   wall-density[1]                = 0
   wall-ewald-zfac                = 3
   pull                           = false
   awh                            = false
   rotation                       = false
   interactiveMD                  = false
   disre                          = No
   disre-weighting                = Conservative
   disre-mixed                    = false
   dr-fc                          = 1000
   dr-tau                         = 0
   nstdisreout                    = 100
   orire-fc                       = 0
   orire-tau                      = 0
   nstorireout                    = 100
   free-energy                    = no
   cos-acceleration               = 0
   deform (3x3):
      deform[    0]={ 0.00000e+00,  0.00000e+00,  0.00000e+00}
      deform[    1]={ 0.00000e+00,  0.00000e+00,  0.00000e+00}
      deform[    2]={ 0.00000e+00,  0.00000e+00,  0.00000e+00}
   simulated-tempering            = false
   swapcoords                     = no
   userint1                       = 0
   userint2                       = 0
   userint3                       = 0
   userint4                       = 0
   userreal1                      = 0
   userreal2                      = 0
   userreal3                      = 0
   userreal4                      = 0
   applied-forces:
     electric-field:
       x:
         E0                       = 0
         omega                    = 0
         t0                       = 0
         sigma                    = 0
       y:
         E0                       = 0
         omega                    = 0
         t0                       = 0
         sigma                    = 0
       z:
         E0                       = 0
         omega                    = 0
         t0                       = 0
         sigma                    = 0
     density-guided-simulation:
       active                     = false
       group                      = protein
       similarity-measure         = inner-product
       atom-spreading-weight      = unity
       force-constant             = 1e+09
       gaussian-transform-spreading-width = 0.2
       gaussian-transform-spreading-range-in-multiples-of-width = 4
       reference-density-filename = reference.mrc
       nst                        = 1
       normalize-densities        = true
       adaptive-force-scaling     = false
       adaptive-force-scaling-time-constant = 4
grpopts:
   nrdf:     3107.77     38004.2
   ref-t:         298         298
   tau-t:           1           1
annealing:          No          No
annealing-npoints:           0           0
   acc:	           0           0           0
   nfreeze:           N           N           N
   energygrp-flags[  0]: 0

Changing nstlist from 10 to 50, rlist from 1.204 to 1.352

Initializing Domain Decomposition on 4 ranks
Dynamic load balancing: auto
Minimum cell size due to atom displacement: 0.696 nm
Initial maximum distances in bonded interactions:
    two-body bonded interactions: 0.708 nm, Bond, atoms 2408 2412
  multi-body bonded interactions: 1.534 nm, G96Angle, atoms 611 625
Minimum cell size due to bonded interactions: 1.687 nm
Maximum distance for 5 constraints, at 120 deg. angles, all-trans: 1.308 nm
Estimated maximum distance required for P-LINCS: 1.308 nm
Scaling the initial minimum size with 1/0.8 (option -dds) = 1.25
Using 0 separate PME ranks
Optimizing the DD grid for 4 cells with a minimum initial size of 2.109 nm
The maximum allowed number of cells is: X 5 Y 5 Z 5
Domain decomposition grid 4 x 1 x 1, separate PME ranks 0
PME domain decomposition: 4 x 1 x 1
Domain decomposition rank 0, coordinates 0 0 0

The initial number of communication pulses is: X 1
The initial domain decomposition cell size is: X 2.99 nm

The maximum allowed distance for atoms involved in interactions is:
                 non-bonded interactions           1.352 nm
(the following are initial values, they could change due to box deformation)
            two-body bonded interactions  (-rdd)   2.341 nm
          multi-body bonded interactions  (-rdd)   2.341 nm
              virtual site constructions  (-rcon)  2.994 nm
  atoms separated by up to 5 constraints  (-rcon)  2.994 nm

When dynamic load balancing gets turned on, these settings will change to:
The maximum number of communication pulses is: X 1
The minimum size for domain decomposition cells is 2.341 nm
The requested allowed shrink of DD cells (option -dds) is: 0.80
The allowed shrink of domain decomposition cells is: X 0.78
The maximum allowed distance for atoms involved in interactions is:
                 non-bonded interactions           1.352 nm
            two-body bonded interactions  (-rdd)   2.341 nm
          multi-body bonded interactions  (-rdd)   2.341 nm
              virtual site constructions  (-rcon)  2.341 nm
  atoms separated by up to 5 constraints  (-rcon)  2.341 nm

Update task on the GPU was required, by the GMX_FORCE_UPDATE_DEFAULT_GPU environment variable, but the following condition(s) were not satisfied:

Domain decomposition is only supported with constraints when update groups are used. This means constraining all bonds is not supported, except for small molecules, and box sizes close to half the pair-list cutoff are not supported.
 With domain decomposition, PME must run fully on the GPU.
Virtual sites are not supported.

Will use CPU version of update.

On host r250n02 4 GPUs selected for this run.
Mapping of GPU IDs to the 4 GPU tasks in the 4 ranks on this node:
  PP:0,PP:1,PP:2,PP:3
PP tasks will do (non-perturbed) short-ranged and most bonded interactions on the GPU
PP task will update and constrain coordinates on the CPU
Using 4 MPI threads
Using 8 OpenMP threads per tMPI thread

Note: Peer access enabled between the following GPU pairs in the node:
 0->1 0->2 0->3 1->0 1->2 1->3 2->0 2->1 2->3 3->0 3->1 3->2
System total charge: 0.000
Will do PME sum in reciprocal space for electrostatic interactions.

Using a Gaussian width (1/beta) of 0.384195 nm for Ewald
Potential shift: LJ r^-12: -1.122e-01 r^-6: -3.349e-01, Ewald -8.333e-06
Initialized non-bonded Ewald tables, spacing: 1.02e-03 size: 1176

Using GPU 8x8 nonbonded short-range kernels

Using a dual 8x8 pair-list setup updated with dynamic, rolling pruning:
  outer list: updated every 50 steps, buffer 0.152 nm, rlist 1.352 nm
  inner list: updated every  8 steps, buffer 0.003 nm, rlist 1.203 nm
At tolerance 0.005 kJ/mol/ps per atom, equivalent classical 1x1 list would be:
  outer list: updated every 50 steps, buffer 0.262 nm, rlist 1.462 nm
  inner list: updated every  8 steps, buffer 0.025 nm, rlist 1.225 nm

Using full Lennard-Jones parameter combination matrix

NOTE: This run uses the 'GPU halo exchange' feature, enabled by the GMX_GPU_DD_COMMS environment variable.
Removing pbc first time

Initializing Parallel LINear Constraint Solver

The number of constraints is 672
There are constraints between atoms in different decomposition domains,
will communicate selected coordinates each lincs iteration
672 constraints are involved in constraint triangles,
will apply an additional matrix expansion of order 4 for couplings
between constraints inside triangles

Linking all bonded interactions to atoms
There are 1260 inter update-group virtual sites,
will an extra communication step for selected coordinates and forces

Intra-simulation communication will occur every 10 steps.

There are: 13929 Atoms
There are: 1260 VSites
Atom distribution over 4 domains: av 3797 stddev 236 min 3485 max 4116

NOTE: DLB will not turn on during the first phase of PME tuning

Constraining the starting coordinates (step 0)

Constraining the coordinates at t0-dt (step 0)
Center of mass motion removal mode is Linear
We have the following groups for center of mass motion removal:
  0:  rest
RMS relative constraint deviation after constraining: 4.46e-06
Initial temperature: 297.44 K

Started mdrun on rank 0 Thu Apr 29 02:16:33 2021

           Step           Time
              0        0.00000

   Energies (kJ/mol)
           Bond       G96Angle    Proper Dih.        LJ (SR)   Coulomb (SR)
    2.47162e+03    5.39009e+03    3.58837e+02   -4.06465e+05   -2.37832e+03
    1.21266e+03   -3.99410e+05    5.08352e+04   -3.48575e+05   -3.48471e+05
    Temperature Pressure (bar)   Constr. rmsd
    2.97435e+02   -9.78240e+00    6.07042e-06

	<====  A V E R A G E S  ====>

	Statistics over 1000000001 steps using 10000001 frames

   Energies (kJ/mol)
           Bond       G96Angle    Proper Dih.        LJ (SR)   Coulomb (SR)
    2.50095e+03    5.09444e+03    3.13481e+02   -4.09460e+05   -1.84061e+03
   Coul. recip.      Potential    Kinetic En.   Total Energy  Conserved En.
    4.79801e+02   -4.02912e+05    5.09324e+04   -3.51979e+05    5.58097e+05
    Temperature Pressure (bar)   Constr. rmsd
    2.98004e+02    1.00696e+00    0.00000e+00

          Box-X          Box-Y          Box-Z
    1.19482e+01    1.19482e+01    1.19482e+01

   Total Virial (kJ/mol)
    1.69232e+04    4.84861e-01   -1.39614e-01
    4.84855e-01    1.69225e+04    2.54809e-01
   -1.39601e-01    2.54818e-01    1.69368e+04

   Pressure (bar)
    1.11170e+00   -7.27418e-03    4.37468e-03
   -7.27405e-03    1.10716e+00    2.86972e-03
    4.37442e-03    2.86955e-03    8.02005e-01

      T-Protein  T-non-Protein
    2.98169e+02    2.97990e+02
